Version 4
SHEET 1 1172 680
WIRE 48 -320 48 -352
WIRE 112 -320 48 -320
WIRE 208 -320 192 -320
WIRE 432 -320 272 -320
WIRE 48 -288 48 -320
WIRE 48 -176 48 -208
WIRE 96 48 48 48
WIRE 192 48 176 48
WIRE 432 48 432 -320
WIRE 432 48 288 48
WIRE 544 48 432 48
WIRE 1040 48 800 48
WIRE 48 80 48 48
WIRE 1040 80 1040 48
WIRE 272 128 272 96
WIRE 304 128 272 128
WIRE 272 144 272 128
WIRE 48 192 48 160
WIRE 1040 192 1040 160
WIRE 672 208 672 144
WIRE 272 256 272 224
FLAG 48 192 0
FLAG 48 -176 0
FLAG 272 256 0
FLAG 48 -352 Vin
FLAG 672 208 0
FLAG 1040 192 0
FLAG 304 128 Vin
SYMBOL voltage 48 64 R0
WINDOW 3 -115 -148 VRight 2
WINDOW 123 0 0 Left 0
WINDOW 39 0 0 Left 0
SYMATTR InstName V1
SYMATTR Value PULSE(0 5 10m 1m 1m 60m 120m 10)
SYMBOL voltage 48 -304 R0
WINDOW 3 -103 -243 VRight 2
WINDOW 123 0 0 Left 0
WINDOW 39 0 0 Left 0
SYMATTR InstName V2
SYMATTR Value PULSE(0 12 40m 1m 1m 60m 120m 10)
SYMBOL res 80 64 R270
WINDOW 0 32 56 VTop 2
WINDOW 3 0 56 VBottom 2
SYMATTR InstName R1
SYMATTR Value 10m
SYMBOL res 96 -304 R270
WINDOW 0 32 56 VTop 2
WINDOW 3 0 56 VBottom 2
SYMATTR InstName R2
SYMATTR Value 10m
SYMBOL pmos 192 96 R270
SYMATTR InstName M1
SYMATTR Value AO6407
SYMBOL res 256 128 R0
SYMATTR InstName R3
SYMATTR Value 10k
SYMBOL PowerProducts\\LT1086-3.3 672 48 R0
SYMATTR InstName U1
SYMBOL current 1040 80 R0
WINDOW 3 24 164 Left 2
WINDOW 123 24 108 Left 2
WINDOW 39 24 136 Left 2
SYMATTR InstName I1
SYMATTR Value 10mA
SYMATTR SpiceLine load
SYMBOL diode 208 -304 R270
WINDOW 0 32 32 VTop 2
WINDOW 3 0 32 VBottom 2
SYMATTR InstName D1
TEXT 0 -56 Left 2 ;5V USB
TEXT 0 -432 Left 2 ;Vin 9-15 V
TEXT 496 352 Left 2 ;5V
TEXT -2 372 Left 2 !.tran 200m
TEXT 80 -608 Left 2 ;Diode is soledly to yield a simplier model
